key1 value1;

FoamFile
{
    format      ascii;
    class       dictionary;
    object      test;
}

blocks
(
    type (0 1 2 3 4 5 6 7) (20 20 1) grade (1 1 1)
);

key2 value1;

boundary
(
    movingWall
    {
        faces
        (
            (3 7 6 2)
        );
        type wall;

    }
);